pyacdcpf/Cases/PowerflowAC/case5_stagg.py
"""Power flow data for 5 bus, 2 generator case.
"""

from numpy import array

def case5_stagg():
    """Power flow data for 5 bus, 2 generator case.
    Please see L{caseformat} for details on the case file format.
    
    Network data from ...
    G.W. Stagg, A.H. El-Abiad, "Computer methods in power system analysis",
    McGraw-Hill, 1968.
    
    @return: Power flow data for 5 bus, 2 generator case.
    """
    ppc = {"version": '2'}

    ##-----  Power Flow Data  -----##
    ## system MVA base
    ppc["baseMVA"] = 100.0

    ## bus data
    # bus_i     type    Pd      Qd      Gs  Bs  area    Vm      Va baseKV zone      Vmax    Vmin
    ppc["bus"] = array([
        [1,       3,      0 ,    0 ,     0,   0,  1,      1.06,	  0,	345,    1,      1.1,    0.9],
        [2,       2,      20,    10,     0,   0,  1,      1   ,   0,	345,    1,      1.1,    0.9],
        [3,       1,      45,    15,     0,   0,  1,      1   ,   0,	345,    1,      1.1,    0.9],
        [4,       1,      40,    5 ,     0,   0,  1,      1   ,   0,	345,    1,      1.1,    0.9],
        [5,       1,      60,    10,     0,   0,  1,      1   ,   0,	345,    1,      1.1,    0.9],
    ])

    ## generator data
    #   bus Pg,Qg, Qmax, Qmin, Vg,  mBase, status, Pmax,   Pmin
    ppc["gen"] = array([
        [1,	0 , 0,	500, -500, 1.06,  100,   1,     250,     10],
        [2,	40, 0,	300, -300, 1   ,  100,   1,     300,     10]
    ])

    ## branch data
    # fbus, tbus,   r,      x,      b,    rateA, rateB, rateC, ratio, angle, status
    ppc["branch"] = array([
        [1,   2,   0.02,   0.06,   0.06,   100,  100,  100,    0,      0,      1],
        [1,   3,   0.08,   0.24,   0.05,   100,  100,  100,    0,      0,      1],
        [2,   3,   0.06,   0.18,   0.04,   100,  100,  100,    0,      0,      1],
        [2,   4,   0.06,   0.18,   0.04,   100,  100,  100,    0,      0,      1],
        [2,   5,   0.04,   0.12,   0.03,   100,  100,  100,    0,      0,      1],
        [3,   4,   0.01,   0.03,   0.02,   100,  100,  100,    0,      0,      1],
        [4,   5,   0.08,   0.24,   0.05,   100,  100,  100,    0,      0,      1]
    ])

    return ppc